MODEL 1
REMARK VINA RESULT:    -5.761      0.000      0.000
REMARK INTER + INTRA:          -9.519
REMARK INTER:                  -8.455
REMARK INTRA:                  -1.064
REMARK UNBOUND:                -1.064
REMARK SMILES CC(C)(c1ccc(OC[C@H]2CO2)cc1)c1ccc(OC[C@H]2CO2)cc1
REMARK SMILES IDX 2 1 1 2 3 3 4 4 7 5 6 6 13 7 5 8 14 9 8 10 9 11 10 12 12 13
REMARK SMILES IDX 11 14 15 15 16 16 25 17 17 18 24 19 18 20 19 21 20 22 21 23
REMARK SMILES IDX 23 24 22 25
REMARK H PARENT
ROOT
ATOM      1  C   UNL     1      24.383   7.381   7.303  1.00  0.00     0.015 C 
ATOM      2  C   UNL     1      23.368   7.132   6.133  1.00  0.00     0.021 C 
ATOM      3  C   UNL     1      23.458   7.755   8.522  1.00  0.00     0.021 C 
ENDROOT
BRANCH   1   4
ATOM      4  C   UNL     1      25.217   6.157   7.477  1.00  0.00    -0.038 A 
ATOM      5  C   UNL     1      26.773   3.866   7.805  1.00  0.00     0.119 A 
ATOM      6  C   UNL     1      26.278   4.198   6.544  1.00  0.00     0.047 A 
ATOM      7  C   UNL     1      26.490   4.679   8.902  1.00  0.00     0.047 A 
ATOM      8  C   UNL     1      25.499   5.344   6.380  1.00  0.00     0.008 A 
ATOM      9  C   UNL     1      25.711   5.825   8.738  1.00  0.00     0.008 A 
BRANCH   5  10
ATOM     10  O   UNL     1      27.533   2.748   7.965  1.00  0.00    -0.491 OA
BRANCH  10  11
ATOM     11  C   UNL     1      28.801   2.727   7.310  1.00  0.00     0.264 C 
BRANCH  11  12
ATOM     12  C   UNL     1      28.794   1.686   6.244  1.00  0.00     0.181 C 
ATOM     13  O   UNL     1      28.963   0.351   6.726  1.00  0.00    -0.369 OA
ATOM     14  C   UNL     1      30.025   0.895   5.933  1.00  0.00     0.196 C 
ENDBRANCH  11  12
ENDBRANCH  10  11
ENDBRANCH   5  10
ENDBRANCH   1   4
BRANCH   1  15
ATOM     15  C   UNL     1      25.249   8.662   7.058  1.00  0.00    -0.038 A 
ATOM     16  C   UNL     1      25.136   9.674   7.959  1.00  0.00     0.008 A 
ATOM     17  C   UNL     1      26.051   8.672   5.960  1.00  0.00     0.008 A 
ATOM     18  C   UNL     1      25.908  10.815   7.740  1.00  0.00     0.047 A 
ATOM     19  C   UNL     1      26.823   9.813   5.741  1.00  0.00     0.047 A 
ATOM     20  C   UNL     1      26.751  10.884   6.631  1.00  0.00     0.119 A 
BRANCH  20  21
ATOM     21  O   UNL     1      27.504  11.998   6.419  1.00  0.00    -0.491 OA
BRANCH  21  22
ATOM     22  C   UNL     1      28.643  11.861   5.572  1.00  0.00     0.264 C 
BRANCH  22  23
ATOM     23  C   UNL     1      29.697  12.826   5.993  1.00  0.00     0.181 C 
ATOM     24  O   UNL     1      29.201  14.121   6.346  1.00  0.00    -0.369 OA
ATOM     25  C   UNL     1      30.006  14.034   5.164  1.00  0.00     0.196 C 
ENDBRANCH  22  23
ENDBRANCH  21  22
ENDBRANCH  20  21
ENDBRANCH   1  15
TORSDOF 8
ENDMDL
MODEL 2
REMARK VINA RESULT:    -5.752      2.476      8.727
REMARK INTER + INTRA:          -9.506
REMARK INTER:                  -9.228
REMARK INTRA:                  -0.278
REMARK UNBOUND:                -1.064
REMARK SMILES CC(C)(c1ccc(OC[C@H]2CO2)cc1)c1ccc(OC[C@H]2CO2)cc1
REMARK SMILES IDX 2 1 1 2 3 3 4 4 7 5 6 6 13 7 5 8 14 9 8 10 9 11 10 12 12 13
REMARK SMILES IDX 11 14 15 15 16 16 25 17 17 18 24 19 18 20 19 21 20 22 21 23
REMARK SMILES IDX 23 24 22 25
REMARK H PARENT
ROOT
ATOM      1  C   UNL     1      25.510   4.523   9.485  1.00  0.00     0.015 C 
ATOM      2  C   UNL     1      27.031   4.669   9.842  1.00  0.00     0.021 C 
ATOM      3  C   UNL     1      24.876   3.934  10.802  1.00  0.00     0.021 C 
ENDROOT
BRANCH   1   4
ATOM      4  C   UNL     1      24.992   5.855   9.060  1.00  0.00    -0.038 A 
ATOM      5  C   UNL     1      24.021   8.345   8.261  1.00  0.00     0.119 A 
ATOM      6  C   UNL     1      23.374   7.636   9.273  1.00  0.00     0.047 A 
ATOM      7  C   UNL     1      25.152   7.808   7.648  1.00  0.00     0.047 A 
ATOM      8  C   UNL     1      23.859   6.391   9.673  1.00  0.00     0.008 A 
ATOM      9  C   UNL     1      25.638   6.563   8.047  1.00  0.00     0.008 A 
BRANCH   5  10
ATOM     10  O   UNL     1      23.546   9.560   7.872  1.00  0.00    -0.491 OA
BRANCH  10  11
ATOM     11  C   UNL     1      24.490  10.481   7.327  1.00  0.00     0.264 C 
BRANCH  11  12
ATOM     12  C   UNL     1      25.257  11.120   8.433  1.00  0.00     0.181 C 
ATOM     13  O   UNL     1      25.506  12.515   8.244  1.00  0.00    -0.369 OA
ATOM     14  C   UNL     1      26.641  11.641   8.207  1.00  0.00     0.196 C 
ENDBRANCH  11  12
ENDBRANCH  10  11
ENDBRANCH   5  10
ENDBRANCH   1   4
BRANCH   1  15
ATOM     15  C   UNL     1      25.270   3.417   8.404  1.00  0.00    -0.038 A 
ATOM     16  C   UNL     1      25.242   2.126   8.827  1.00  0.00     0.008 A 
ATOM     17  C   UNL     1      25.110   3.828   7.118  1.00  0.00     0.008 A 
ATOM     18  C   UNL     1      25.028   1.141   7.863  1.00  0.00     0.047 A 
ATOM     19  C   UNL     1      24.896   2.843   6.153  1.00  0.00     0.047 A 
ATOM     20  C   UNL     1      24.856   1.500   6.526  1.00  0.00     0.119 A 
BRANCH  20  21
ATOM     21  O   UNL     1      24.647   0.538   5.586  1.00  0.00    -0.491 OA
BRANCH  21  22
ATOM     22  C   UNL     1      25.740  -0.331   5.292  1.00  0.00     0.264 C 
BRANCH  22  23
ATOM     23  C   UNL     1      26.959   0.478   5.014  1.00  0.00     0.181 C 
ATOM     24  O   UNL     1      28.158  -0.291   4.884  1.00  0.00    -0.369 OA
ATOM     25  C   UNL     1      28.062   0.575   6.022  1.00  0.00     0.196 C 
ENDBRANCH  22  23
ENDBRANCH  21  22
ENDBRANCH  20  21
ENDBRANCH   1  15
TORSDOF 8
ENDMDL
MODEL 3
REMARK VINA RESULT:    -5.748      0.149      8.255
REMARK INTER + INTRA:          -9.501
REMARK INTER:                  -8.462
REMARK INTRA:                  -1.039
REMARK UNBOUND:                -1.064
REMARK SMILES CC(C)(c1ccc(OC[C@H]2CO2)cc1)c1ccc(OC[C@H]2CO2)cc1
REMARK SMILES IDX 2 1 1 2 3 3 4 4 7 5 6 6 13 7 5 8 14 9 8 10 9 11 10 12 12 13
REMARK SMILES IDX 11 14 15 15 16 16 25 17 17 18 24 19 18 20 19 21 20 22 21 23
REMARK SMILES IDX 23 24 22 25
REMARK H PARENT
ROOT
ATOM      1  C   UNL     1      24.379   7.463   7.269  1.00  0.00     0.015 C 
ATOM      2  C   UNL     1      23.435   7.701   8.499  1.00  0.00     0.021 C 
ATOM      3  C   UNL     1      23.382   7.122   6.098  1.00  0.00     0.021 C 
ENDROOT
BRANCH   1   4
ATOM      4  C   UNL     1      25.215   8.681   7.070  1.00  0.00    -0.038 A 
ATOM      5  C   UNL     1      26.778  10.962   6.694  1.00  0.00     0.119 A 
ATOM      6  C   UNL     1      25.947  10.862   7.810  1.00  0.00     0.047 A 
ATOM      7  C   UNL     1      26.826   9.922   5.765  1.00  0.00     0.047 A 
ATOM      8  C   UNL     1      25.166   9.721   7.998  1.00  0.00     0.008 A 
ATOM      9  C   UNL     1      26.045   8.782   5.953  1.00  0.00     0.008 A 
BRANCH   5  10
ATOM     10  O   UNL     1      27.540  12.075   6.511  1.00  0.00    -0.491 OA
BRANCH  10  11
ATOM     11  C   UNL     1      28.734  11.925   5.744  1.00  0.00     0.264 C 
BRANCH  11  12
ATOM     12  C   UNL     1      29.648  13.069   6.019  1.00  0.00     0.181 C 
ATOM     13  O   UNL     1      28.981  14.276   6.396  1.00  0.00    -0.369 OA
ATOM     14  C   UNL     1      29.657  14.274   5.133  1.00  0.00     0.196 C 
ENDBRANCH  11  12
ENDBRANCH  10  11
ENDBRANCH   5  10
ENDBRANCH   1   4
BRANCH   1  15
ATOM     15  C   UNL     1      25.243   6.169   7.440  1.00  0.00    -0.038 A 
ATOM     16  C   UNL     1      25.504   5.440   6.323  1.00  0.00     0.008 A 
ATOM     17  C   UNL     1      25.669   5.866   8.695  1.00  0.00     0.008 A 
ATOM     18  C   UNL     1      26.273   4.287   6.476  1.00  0.00     0.047 A 
ATOM     19  C   UNL     1      26.438   4.712   8.849  1.00  0.00     0.047 A 
ATOM     20  C   UNL     1      26.740   3.923   7.739  1.00  0.00     0.119 A 
BRANCH  20  21
ATOM     21  O   UNL     1      27.491   2.797   7.887  1.00  0.00    -0.491 OA
BRANCH  21  22
ATOM     22  C   UNL     1      28.772   2.783   7.259  1.00  0.00     0.264 C 
BRANCH  22  23
ATOM     23  C   UNL     1      28.789   1.750   6.186  1.00  0.00     0.181 C 
ATOM     24  O   UNL     1      28.789   0.402   6.667  1.00  0.00    -0.369 OA
ATOM     25  C   UNL     1      29.974   0.855   6.000  1.00  0.00     0.196 C 
ENDBRANCH  22  23
ENDBRANCH  21  22
ENDBRANCH  20  21
ENDBRANCH   1  15
TORSDOF 8
ENDMDL
MODEL 4
REMARK VINA RESULT:    -5.709      0.252      1.389
REMARK INTER + INTRA:          -9.443
REMARK INTER:                  -8.392
REMARK INTRA:                  -1.051
REMARK UNBOUND:                -1.064
REMARK SMILES CC(C)(c1ccc(OC[C@H]2CO2)cc1)c1ccc(OC[C@H]2CO2)cc1
REMARK SMILES IDX 2 1 1 2 3 3 4 4 7 5 6 6 13 7 5 8 14 9 8 10 9 11 10 12 12 13
REMARK SMILES IDX 11 14 15 15 16 16 25 17 17 18 24 19 18 20 19 21 20 22 21 23
REMARK SMILES IDX 23 24 22 25
REMARK H PARENT
ROOT
ATOM      1  C   UNL     1      24.336   7.384   7.243  1.00  0.00     0.015 C 
ATOM      2  C   UNL     1      23.351   7.130   6.049  1.00  0.00     0.021 C 
ATOM      3  C   UNL     1      23.381   7.785   8.431  1.00  0.00     0.021 C 
ENDROOT
BRANCH   1   4
ATOM      4  C   UNL     1      25.151   6.154   7.457  1.00  0.00    -0.038 A 
ATOM      5  C   UNL     1      26.679   3.855   7.856  1.00  0.00     0.119 A 
ATOM      6  C   UNL     1      26.402   4.703   8.928  1.00  0.00     0.047 A 
ATOM      7  C   UNL     1      26.194   4.158   6.584  1.00  0.00     0.047 A 
ATOM      8  C   UNL     1      25.638   5.853   8.729  1.00  0.00     0.008 A 
ATOM      9  C   UNL     1      25.430   5.308   6.385  1.00  0.00     0.008 A 
BRANCH   5  10
ATOM     10  O   UNL     1      27.425   2.733   8.052  1.00  0.00    -0.491 OA
BRANCH  10  11
ATOM     11  C   UNL     1      28.534   2.530   7.176  1.00  0.00     0.264 C 
BRANCH  11  12
ATOM     12  C   UNL     1      28.305   1.304   6.361  1.00  0.00     0.181 C 
ATOM     13  O   UNL     1      29.192   0.225   6.663  1.00  0.00    -0.369 OA
ATOM     14  C   UNL     1      29.328   0.836   5.374  1.00  0.00     0.196 C 
ENDBRANCH  11  12
ENDBRANCH  10  11
ENDBRANCH   5  10
ENDBRANCH   1   4
BRANCH   1  15
ATOM     15  C   UNL     1      25.222   8.653   7.006  1.00  0.00    -0.038 A 
ATOM     16  C   UNL     1      26.040   8.650   5.920  1.00  0.00     0.008 A 
ATOM     17  C   UNL     1      25.112   9.666   7.905  1.00  0.00     0.008 A 
ATOM     18  C   UNL     1      26.829   9.780   5.710  1.00  0.00     0.047 A 
ATOM     19  C   UNL     1      25.902  10.797   7.696  1.00  0.00     0.047 A 
ATOM     20  C   UNL     1      26.760  10.854   6.598  1.00  0.00     0.119 A 
BRANCH  20  21
ATOM     21  O   UNL     1      27.531  11.956   6.392  1.00  0.00    -0.491 OA
BRANCH  21  22
ATOM     22  C   UNL     1      28.685  11.798   5.569  1.00  0.00     0.264 C 
BRANCH  22  23
ATOM     23  C   UNL     1      29.688  12.846   5.909  1.00  0.00     0.181 C 
ATOM     24  O   UNL     1      29.120  14.082   6.352  1.00  0.00    -0.369 OA
ATOM     25  C   UNL     1      29.801  14.094   5.092  1.00  0.00     0.196 C 
ENDBRANCH  22  23
ENDBRANCH  21  22
ENDBRANCH  20  21
ENDBRANCH   1  15
TORSDOF 8
ENDMDL
MODEL 5
REMARK VINA RESULT:    -5.625      1.341      8.471
REMARK INTER + INTRA:          -9.320
REMARK INTER:                  -8.685
REMARK INTRA:                  -0.635
REMARK UNBOUND:                -1.064
REMARK SMILES CC(C)(c1ccc(OC[C@H]2CO2)cc1)c1ccc(OC[C@H]2CO2)cc1
REMARK SMILES IDX 2 1 1 2 3 3 4 4 7 5 6 6 13 7 5 8 14 9 8 10 9 11 10 12 12 13
REMARK SMILES IDX 11 14 15 15 16 16 25 17 17 18 24 19 18 20 19 21 20 22 21 23
REMARK SMILES IDX 23 24 22 25
REMARK H PARENT
ROOT
ATOM      1  C   UNL     1      24.372   7.863   7.578  1.00  0.00     0.015 C 
ATOM      2  C   UNL     1      23.408   8.187   8.772  1.00  0.00     0.021 C 
ATOM      3  C   UNL     1      23.392   7.493   6.402  1.00  0.00     0.021 C 
ENDROOT
BRANCH   1   4
ATOM      4  C   UNL     1      25.248   9.047   7.340  1.00  0.00    -0.038 A 
ATOM      5  C   UNL     1      26.883  11.261   6.891  1.00  0.00     0.119 A 
ATOM      6  C   UNL     1      26.130  11.176   8.062  1.00  0.00     0.047 A 
ATOM      7  C   UNL     1      26.818  10.240   5.944  1.00  0.00     0.047 A 
ATOM      8  C   UNL     1      25.312  10.069   8.286  1.00  0.00     0.008 A 
ATOM      9  C   UNL     1      26.000   9.132   6.169  1.00  0.00     0.008 A 
BRANCH   5  10
ATOM     10  O   UNL     1      27.681  12.343   6.673  1.00  0.00    -0.491 OA
BRANCH  10  11
ATOM     11  C   UNL     1      28.764  12.176   5.759  1.00  0.00     0.264 C 
BRANCH  11  12
ATOM     12  C   UNL     1      29.767  13.257   5.973  1.00  0.00     0.181 C 
ATOM     13  O   UNL     1      29.197  14.534   6.272  1.00  0.00    -0.369 OA
ATOM     14  C   UNL     1      29.876  14.402   5.017  1.00  0.00     0.196 C 
ENDBRANCH  11  12
ENDBRANCH  10  11
ENDBRANCH   5  10
ENDBRANCH   1   4
BRANCH   1  15
ATOM     15  C   UNL     1      25.194   6.555   7.832  1.00  0.00    -0.038 A 
ATOM     16  C   UNL     1      25.268   6.103   9.112  1.00  0.00     0.008 A 
ATOM     17  C   UNL     1      25.777   5.968   6.754  1.00  0.00     0.008 A 
ATOM     18  C   UNL     1      26.001   4.938   9.337  1.00  0.00     0.047 A 
ATOM     19  C   UNL     1      26.511   4.802   6.979  1.00  0.00     0.047 A 
ATOM     20  C   UNL     1      26.622   4.288   8.271  1.00  0.00     0.119 A 
BRANCH  20  21
ATOM     21  O   UNL     1      27.337   3.150   8.492  1.00  0.00    -0.491 OA
BRANCH  21  22
ATOM     22  C   UNL     1      26.909   1.972   7.812  1.00  0.00     0.264 C 
BRANCH  22  23
ATOM     23  C   UNL     1      25.423   1.884   7.854  1.00  0.00     0.181 C 
ATOM     24  O   UNL     1      24.920   0.785   8.619  1.00  0.00    -0.369 OA
ATOM     25  C   UNL     1      24.702   0.744   7.204  1.00  0.00     0.196 C 
ENDBRANCH  22  23
ENDBRANCH  21  22
ENDBRANCH  20  21
ENDBRANCH   1  15
TORSDOF 8
ENDMDL
MODEL 6
REMARK VINA RESULT:    -5.625      1.693      2.050
REMARK INTER + INTRA:          -9.320
REMARK INTER:                  -8.784
REMARK INTRA:                  -0.537
REMARK UNBOUND:                -1.064
REMARK SMILES CC(C)(c1ccc(OC[C@H]2CO2)cc1)c1ccc(OC[C@H]2CO2)cc1
REMARK SMILES IDX 2 1 1 2 3 3 4 4 7 5 6 6 13 7 5 8 14 9 8 10 9 11 10 12 12 13
REMARK SMILES IDX 11 14 15 15 16 16 25 17 17 18 24 19 18 20 19 21 20 22 21 23
REMARK SMILES IDX 23 24 22 25
REMARK H PARENT
ROOT
ATOM      1  C   UNL     1      24.398   7.850   7.652  1.00  0.00     0.015 C 
ATOM      2  C   UNL     1      23.465   7.504   6.439  1.00  0.00     0.021 C 
ATOM      3  C   UNL     1      23.392   8.326   8.768  1.00  0.00     0.021 C 
ENDROOT
BRANCH   1   4
ATOM      4  C   UNL     1      25.209   6.645   7.987  1.00  0.00    -0.038 A 
ATOM      5  C   UNL     1      26.724   4.388   8.614  1.00  0.00     0.119 A 
ATOM      6  C   UNL     1      26.632   4.821   7.291  1.00  0.00     0.047 A 
ATOM      7  C   UNL     1      26.057   5.083   9.623  1.00  0.00     0.047 A 
ATOM      8  C   UNL     1      25.874   5.949   6.978  1.00  0.00     0.008 A 
ATOM      9  C   UNL     1      25.300   6.211   9.309  1.00  0.00     0.008 A 
BRANCH   5  10
ATOM     10  O   UNL     1      27.463   3.286   8.919  1.00  0.00    -0.491 OA
BRANCH  10  11
ATOM     11  C   UNL     1      26.752   2.129   9.358  1.00  0.00     0.264 C 
BRANCH  11  12
ATOM     12  C   UNL     1      25.451   2.041   8.637  1.00  0.00     0.181 C 
ATOM     13  O   UNL     1      24.811   0.767   8.736  1.00  0.00    -0.369 OA
ATOM     14  C   UNL     1      25.294   1.153   7.443  1.00  0.00     0.196 C 
ENDBRANCH  11  12
ENDBRANCH  10  11
ENDBRANCH   5  10
ENDBRANCH   1   4
BRANCH   1  15
ATOM     15  C   UNL     1      25.287   9.106   7.363  1.00  0.00    -0.038 A 
ATOM     16  C   UNL     1      25.979   9.124   6.193  1.00  0.00     0.008 A 
ATOM     17  C   UNL     1      25.306  10.086   8.304  1.00  0.00     0.008 A 
ATOM     18  C   UNL     1      26.772  10.243   5.936  1.00  0.00     0.047 A 
ATOM     19  C   UNL     1      26.099  11.205   8.048  1.00  0.00     0.047 A 
ATOM     20  C   UNL     1      26.831  11.283   6.863  1.00  0.00     0.119 A 
BRANCH  20  21
ATOM     21  O   UNL     1      27.605  12.374   6.611  1.00  0.00    -0.491 OA
BRANCH  21  22
ATOM     22  C   UNL     1      28.803  12.164   5.866  1.00  0.00     0.264 C 
BRANCH  22  23
ATOM     23  C   UNL     1      29.690  13.352   6.002  1.00  0.00     0.181 C 
ATOM     24  O   UNL     1      29.001  14.571   6.297  1.00  0.00    -0.369 OA
ATOM     25  C   UNL     1      29.629  14.474   5.013  1.00  0.00     0.196 C 
ENDBRANCH  22  23
ENDBRANCH  21  22
ENDBRANCH  20  21
ENDBRANCH   1  15
TORSDOF 8
ENDMDL
MODEL 7
REMARK VINA RESULT:    -5.545      1.343      1.967
REMARK INTER + INTRA:          -9.202
REMARK INTER:                  -8.633
REMARK INTRA:                  -0.568
REMARK UNBOUND:                -1.064
REMARK SMILES CC(C)(c1ccc(OC[C@H]2CO2)cc1)c1ccc(OC[C@H]2CO2)cc1
REMARK SMILES IDX 2 1 1 2 3 3 4 4 7 5 6 6 13 7 5 8 14 9 8 10 9 11 10 12 12 13
REMARK SMILES IDX 11 14 15 15 16 16 25 17 17 18 24 19 18 20 19 21 20 22 21 23
REMARK SMILES IDX 23 24 22 25
REMARK H PARENT
ROOT
ATOM      1  C   UNL     1      24.420   7.791   7.602  1.00  0.00     0.015 C 
ATOM      2  C   UNL     1      23.452   7.506   6.401  1.00  0.00     0.021 C 
ATOM      3  C   UNL     1      23.447   8.210   8.769  1.00  0.00     0.021 C 
ENDROOT
BRANCH   1   4
ATOM      4  C   UNL     1      25.239   6.570   7.853  1.00  0.00    -0.038 A 
ATOM      5  C   UNL     1      26.774   4.289   8.321  1.00  0.00     0.119 A 
ATOM      6  C   UNL     1      26.163   4.949   9.387  1.00  0.00     0.047 A 
ATOM      7  C   UNL     1      26.619   4.771   7.022  1.00  0.00     0.047 A 
ATOM      8  C   UNL     1      25.395   6.090   9.153  1.00  0.00     0.008 A 
ATOM      9  C   UNL     1      25.851   5.911   6.788  1.00  0.00     0.008 A 
BRANCH   5  10
ATOM     10  O   UNL     1      27.523   3.176   8.551  1.00  0.00    -0.491 OA
BRANCH  10  11
ATOM     11  C   UNL     1      27.031   1.943   8.027  1.00  0.00     0.264 C 
BRANCH  11  12
ATOM     12  C   UNL     1      25.542   1.937   8.087  1.00  0.00     0.181 C 
ATOM     13  O   UNL     1      24.984   0.764   8.685  1.00  0.00    -0.369 OA
ATOM     14  C   UNL     1      24.745   0.958   7.285  1.00  0.00     0.196 C 
ENDBRANCH  11  12
ENDBRANCH  10  11
ENDBRANCH   5  10
ENDBRANCH   1   4
BRANCH   1  15
ATOM     15  C   UNL     1      25.302   9.059   7.350  1.00  0.00    -0.038 A 
ATOM     16  C   UNL     1      25.280  10.034   8.297  1.00  0.00     0.008 A 
ATOM     17  C   UNL     1      26.026   9.096   6.200  1.00  0.00     0.008 A 
ATOM     18  C   UNL     1      26.066  11.164   8.072  1.00  0.00     0.047 A 
ATOM     19  C   UNL     1      26.812  10.226   5.974  1.00  0.00     0.047 A 
ATOM     20  C   UNL     1      26.832  11.259   6.910  1.00  0.00     0.119 A 
BRANCH  20  21
ATOM     21  O   UNL     1      27.598  12.362   6.691  1.00  0.00    -0.491 OA
BRANCH  21  22
ATOM     22  C   UNL     1      28.732  12.207   5.839  1.00  0.00     0.264 C 
BRANCH  22  23
ATOM     23  C   UNL     1      29.696  13.316   6.084  1.00  0.00     0.181 C 
ATOM     24  O   UNL     1      29.084  14.571   6.393  1.00  0.00    -0.369 OA
ATOM     25  C   UNL     1      29.784  14.479   5.147  1.00  0.00     0.196 C 
ENDBRANCH  22  23
ENDBRANCH  21  22
ENDBRANCH  20  21
ENDBRANCH   1  15
TORSDOF 8
ENDMDL
MODEL 8
REMARK VINA RESULT:    -5.466      1.076      8.387
REMARK INTER + INTRA:          -9.087
REMARK INTER:                  -8.181
REMARK INTRA:                  -0.905
REMARK UNBOUND:                -1.064
REMARK SMILES CC(C)(c1ccc(OC[C@H]2CO2)cc1)c1ccc(OC[C@H]2CO2)cc1
REMARK SMILES IDX 2 1 1 2 3 3 4 4 7 5 6 6 13 7 5 8 14 9 8 10 9 11 10 12 12 13
REMARK SMILES IDX 11 14 15 15 16 16 25 17 17 18 24 19 18 20 19 21 20 22 21 23
REMARK SMILES IDX 23 24 22 25
REMARK H PARENT
ROOT
ATOM      1  C   UNL     1      24.398   7.787   7.524  1.00  0.00     0.015 C 
ATOM      2  C   UNL     1      23.512   8.014   8.798  1.00  0.00     0.021 C 
ATOM      3  C   UNL     1      23.346   7.481   6.392  1.00  0.00     0.021 C 
ENDROOT
BRANCH   1   4
ATOM      4  C   UNL     1      25.242   8.998   7.310  1.00  0.00    -0.038 A 
ATOM      5  C   UNL     1      26.823  11.261   6.911  1.00  0.00     0.119 A 
ATOM      6  C   UNL     1      26.800  10.249   5.952  1.00  0.00     0.047 A 
ATOM      7  C   UNL     1      26.056  11.141   8.070  1.00  0.00     0.047 A 
ATOM      8  C   UNL     1      26.010   9.117   6.151  1.00  0.00     0.008 A 
ATOM      9  C   UNL     1      25.266  10.009   8.269  1.00  0.00     0.008 A 
BRANCH   5  10
ATOM     10  O   UNL     1      27.595  12.366   6.716  1.00  0.00    -0.491 OA
BRANCH  10  11
ATOM     11  C   UNL     1      28.701  12.234   5.824  1.00  0.00     0.264 C 
BRANCH  11  12
ATOM     12  C   UNL     1      29.660  13.352   6.054  1.00  0.00     0.181 C 
ATOM     13  O   UNL     1      29.039  14.613   6.311  1.00  0.00    -0.369 OA
ATOM     14  C   UNL     1      29.765  14.485   5.082  1.00  0.00     0.196 C 
ENDBRANCH  11  12
ENDBRANCH  10  11
ENDBRANCH   5  10
ENDBRANCH   1   4
BRANCH   1  15
ATOM     15  C   UNL     1      25.251   6.479   7.634  1.00  0.00    -0.038 A 
ATOM     16  C   UNL     1      25.641   5.888   6.473  1.00  0.00     0.008 A 
ATOM     17  C   UNL     1      25.538   6.026   8.883  1.00  0.00     0.008 A 
ATOM     18  C   UNL     1      26.399   4.722   6.572  1.00  0.00     0.047 A 
ATOM     19  C   UNL     1      26.296   4.859   8.982  1.00  0.00     0.047 A 
ATOM     20  C   UNL     1      26.727   4.208   7.827  1.00  0.00     0.119 A 
BRANCH  20  21
ATOM     21  O   UNL     1      27.468   3.070   7.922  1.00  0.00    -0.491 OA
BRANCH  21  22
ATOM     22  C   UNL     1      27.678   2.328   6.721  1.00  0.00     0.264 C 
BRANCH  22  23
ATOM     23  C   UNL     1      26.838   1.098   6.742  1.00  0.00     0.181 C 
ATOM     24  O   UNL     1      26.378   0.678   5.455  1.00  0.00    -0.369 OA
ATOM     25  C   UNL     1      25.388   1.152   6.376  1.00  0.00     0.196 C 
ENDBRANCH  22  23
ENDBRANCH  21  22
ENDBRANCH  20  21
ENDBRANCH   1  15
TORSDOF 8
ENDMDL
MODEL 9
REMARK VINA RESULT:    -5.449      1.551      2.350
REMARK INTER + INTRA:          -9.062
REMARK INTER:                  -8.255
REMARK INTRA:                  -0.808
REMARK UNBOUND:                -1.064
REMARK SMILES CC(C)(c1ccc(OC[C@H]2CO2)cc1)c1ccc(OC[C@H]2CO2)cc1
REMARK SMILES IDX 2 1 1 2 3 3 4 4 7 5 6 6 13 7 5 8 14 9 8 10 9 11 10 12 12 13
REMARK SMILES IDX 11 14 15 15 16 16 25 17 17 18 24 19 18 20 19 21 20 22 21 23
REMARK SMILES IDX 23 24 22 25
REMARK H PARENT
ROOT
ATOM      1  C   UNL     1      25.445   5.196   7.873  1.00  0.00     0.015 C 
ATOM      2  C   UNL     1      24.214   4.430   7.275  1.00  0.00     0.021 C 
ATOM      3  C   UNL     1      25.080   5.348   9.398  1.00  0.00     0.021 C 
ENDROOT
BRANCH   1   4
ATOM      4  C   UNL     1      26.680   4.414   7.579  1.00  0.00    -0.038 A 
ATOM      5  C   UNL     1      28.988   2.947   7.033  1.00  0.00     0.119 A 
ATOM      6  C   UNL     1      28.075   3.216   6.013  1.00  0.00     0.047 A 
ATOM      7  C   UNL     1      28.746   3.410   8.325  1.00  0.00     0.047 A 
ATOM      8  C   UNL     1      26.921   3.949   6.287  1.00  0.00     0.008 A 
ATOM      9  C   UNL     1      27.592   4.144   8.599  1.00  0.00     0.008 A 
BRANCH   5  10
ATOM     10  O   UNL     1      30.115   2.231   6.765  1.00  0.00    -0.491 OA
BRANCH  10  11
ATOM     11  C   UNL     1      30.084   1.376   5.623  1.00  0.00     0.264 C 
BRANCH  11  12
ATOM     12  C   UNL     1      29.664   0.007   6.038  1.00  0.00     0.181 C 
ATOM     13  O   UNL     1      30.125  -1.035   5.174  1.00  0.00    -0.369 OA
ATOM     14  C   UNL     1      28.713  -0.791   5.203  1.00  0.00     0.196 C 
ENDBRANCH  11  12
ENDBRANCH  10  11
ENDBRANCH   5  10
ENDBRANCH   1   4
BRANCH   1  15
ATOM     15  C   UNL     1      25.530   6.666   7.340  1.00  0.00    -0.038 A 
ATOM     16  C   UNL     1      24.887   7.627   8.054  1.00  0.00     0.008 A 
ATOM     17  C   UNL     1      26.239   6.874   6.199  1.00  0.00     0.008 A 
ATOM     18  C   UNL     1      24.964   8.936   7.579  1.00  0.00     0.047 A 
ATOM     19  C   UNL     1      26.315   8.184   5.723  1.00  0.00     0.047 A 
ATOM     20  C   UNL     1      25.677   9.214   6.414  1.00  0.00     0.119 A 
BRANCH  20  21
ATOM     21  O   UNL     1      25.751  10.492   5.950  1.00  0.00    -0.491 OA
BRANCH  21  22
ATOM     22  C   UNL     1      26.874  10.824   5.135  1.00  0.00     0.264 C 
BRANCH  22  23
ATOM     23  C   UNL     1      27.953  11.402   5.985  1.00  0.00     0.181 C 
ATOM     24  O   UNL     1      28.721  12.425   5.345  1.00  0.00    -0.369 OA
ATOM     25  C   UNL     1      29.395  11.196   5.640  1.00  0.00     0.196 C 
ENDBRANCH  22  23
ENDBRANCH  21  22
ENDBRANCH  20  21
ENDBRANCH   1  15
TORSDOF 8
ENDMDL
MODEL 10
REMARK VINA RESULT:    -5.448      1.720      8.498
REMARK INTER + INTRA:          -9.060
REMARK INTER:                  -8.534
REMARK INTRA:                  -0.526
REMARK UNBOUND:                -1.064
REMARK SMILES CC(C)(c1ccc(OC[C@H]2CO2)cc1)c1ccc(OC[C@H]2CO2)cc1
REMARK SMILES IDX 2 1 1 2 3 3 4 4 7 5 6 6 13 7 5 8 14 9 8 10 9 11 10 12 12 13
REMARK SMILES IDX 11 14 15 15 16 16 25 17 17 18 24 19 18 20 19 21 20 22 21 23
REMARK SMILES IDX 23 24 22 25
REMARK H PARENT
ROOT
ATOM      1  C   UNL     1      24.567   7.758   7.047  1.00  0.00     0.015 C 
ATOM      2  C   UNL     1      23.523   8.388   8.033  1.00  0.00     0.021 C 
ATOM      3  C   UNL     1      23.670   7.111   5.924  1.00  0.00     0.021 C 
ENDROOT
BRANCH   1   4
ATOM      4  C   UNL     1      25.497   8.830   6.590  1.00  0.00    -0.038 A 
ATOM      5  C   UNL     1      27.240  10.836   5.739  1.00  0.00     0.119 A 
ATOM      6  C   UNL     1      27.184   9.622   5.053  1.00  0.00     0.047 A 
ATOM      7  C   UNL     1      26.425  11.045   6.852  1.00  0.00     0.047 A 
ATOM      8  C   UNL     1      26.313   8.620   5.479  1.00  0.00     0.008 A 
ATOM      9  C   UNL     1      25.553  10.043   7.277  1.00  0.00     0.008 A 
BRANCH   5  10
ATOM     10  O   UNL     1      28.090  11.814   5.323  1.00  0.00    -0.491 OA
BRANCH  10  11
ATOM     11  C   UNL     1      28.665  12.645   6.331  1.00  0.00     0.264 C 
BRANCH  11  12
ATOM     12  C   UNL     1      29.701  13.524   5.718  1.00  0.00     0.181 C 
ATOM     13  O   UNL     1      30.125  14.602   6.556  1.00  0.00    -0.369 OA
ATOM     14  C   UNL     1      29.394  14.947   5.372  1.00  0.00     0.196 C 
ENDBRANCH  11  12
ENDBRANCH  10  11
ENDBRANCH   5  10
ENDBRANCH   1   4
BRANCH   1  15
ATOM     15  C   UNL     1      25.322   6.549   7.693  1.00  0.00    -0.038 A 
ATOM     16  C   UNL     1      26.102   5.792   6.877  1.00  0.00     0.008 A 
ATOM     17  C   UNL     1      25.142   6.342   9.024  1.00  0.00     0.008 A 
ATOM     18  C   UNL     1      26.774   4.714   7.454  1.00  0.00     0.047 A 
ATOM     19  C   UNL     1      25.814   5.264   9.602  1.00  0.00     0.047 A 
ATOM     20  C   UNL     1      26.631   4.451   8.816  1.00  0.00     0.119 A 
BRANCH  20  21
ATOM     21  O   UNL     1      27.288   3.399   9.377  1.00  0.00    -0.491 OA
BRANCH  21  22
ATOM     22  C   UNL     1      26.871   2.091   8.990  1.00  0.00     0.264 C 
BRANCH  22  23
ATOM     23  C   UNL     1      25.392   2.073   8.808  1.00  0.00     0.181 C 
ATOM     24  O   UNL     1      24.808   0.769   8.876  1.00  0.00    -0.369 OA
ATOM     25  C   UNL     1      24.775   1.430   7.606  1.00  0.00     0.196 C 
ENDBRANCH  22  23
ENDBRANCH  21  22
ENDBRANCH  20  21
ENDBRANCH   1  15
TORSDOF 8
ENDMDL
