# created with PyMOL 3.1.3
@<TRIPOS>MOLECULE
2286
49 52 1                 
SMALL
USER_CHARGES
@<TRIPOS>ATOM
1	   O	-5.803	-3.223	1.122	O.3	1	UNK0	0.000	
2	   O	5.777	-3.246	-1.119	O.3	1	UNK0	0.000	
3	   O	-4.629	-0.574	-0.805	O.3	1	UNK0	0.000	
4	   O	4.612	-0.589	0.803	O.3	1	UNK0	0.000	
5	   C	-0.003	2.555	-0.004	C.3	1	UNK0	0.000	
6	   C	-6.063	-2.236	0.122	C.3	1	UNK0	0.000	
7	   C	6.041	-2.257	-0.120	C.3	1	UNK0	0.000	
8	   C	-1.225	1.727	-0.215	C.2	1	UNK0	0.000	
9	   C	1.277	1.682	0.220	C.2	1	UNK0	0.000	
10	   C	-5.277	-3.471	-0.188	C.3	1	UNK0	0.000	
11	   C	5.250	-3.489	0.191	C.3	1	UNK0	0.000	
12	   C	0.160	3.526	-1.225	C.3	1	UNK0	0.000	
13	   C	-0.043	3.525	1.237	C.3	1	UNK0	0.000	
14	   C	-5.379	-0.933	0.355	C.3	1	UNK0	0.000	
15	   C	5.362	-0.952	-0.355	C.3	1	UNK0	0.000	
16	   C	-1.288	0.837	-1.287	C.2	1	UNK0	0.000	
17	   C	1.277	0.835	1.283	C.2	1	UNK0	0.000	
18	   C	-2.306	1.845	0.659	C.2	1	UNK0	0.000	
19	   C	2.298	1.836	-0.664	C.2	1	UNK0	0.000	
20	   C	-3.513	0.181	-0.611	C.2	1	UNK0	0.000	
21	   C	3.500	0.170	0.608	C.2	1	UNK0	0.000	
22	   C	-2.432	0.064	-1.485	C.2	1	UNK0	0.000	
23	   C	2.418	0.058	1.482	C.2	1	UNK0	0.000	
24	   C	-3.450	1.072	0.460	C.2	1	UNK0	0.000	
25	   C	3.440	1.059	-0.465	C.2	1	UNK0	0.000	
26	   H	-7.063	-2.146	-0.279	 H	1	UNK0	0.000	
27	   H	7.041	-2.170	0.280	 H	1	UNK0	0.000	
28	   H	-4.205	-3.395	-0.318	 H	1	UNK0	0.000	
29	   H	-5.752	-4.245	-0.778	 H	1	UNK0	0.000	
30	   H	4.179	-3.409	0.321	 H	1	UNK0	0.000	
31	   H	5.722	-4.263	0.783	 H	1	UNK0	0.000	
32	   H	0.289	2.998	-2.178	 H	1	UNK0	0.000	
33	   H	0.997	4.223	-1.096	 H	1	UNK0	0.000	
34	   H	-0.743	4.142	-1.339	 H	1	UNK0	0.000	
35	   H	0.897	4.083	1.331	 H	1	UNK0	0.000	
36	   H	-0.195	2.996	2.185	 H	1	UNK0	0.000	
37	   H	-0.847	4.264	1.138	 H	1	UNK0	0.000	
38	   H	-6.130	-0.158	0.550	 H	1	UNK0	0.000	
39	   H	-4.733	-1.030	1.237	 H	1	UNK0	0.000	
40	   H	6.115	-0.180	-0.552	 H	1	UNK0	0.000	
41	   H	4.715	-1.049	-1.238	 H	1	UNK0	0.000	
42	   H	-0.458	0.724	-1.978	 H	1	UNK0	0.000	
43	   H	0.441	0.733	1.965	 H	1	UNK0	0.000	
44	   H	-2.312	2.527	1.502	 H	1	UNK0	0.000	
45	   H	2.312	2.508	-1.511	 H	1	UNK0	0.000	
46	   H	-2.475	-0.630	-2.320	 H	1	UNK0	0.000	
47	   H	2.458	-0.635	2.319	 H	1	UNK0	0.000	
48	   H	-4.280	1.215	1.146	 H	1	UNK0	0.000	
49	   H	4.270	1.197	-1.151	 H	1	UNK0	0.000	
@<TRIPOS>BOND
1 1 6 1
2 1 10 1
3 2 7 1
4 2 11 1
5 3 14 1
6 3 20 1
7 4 15 1
8 4 21 1
9 5 8 1
10 5 9 1
11 5 12 1
12 5 13 1
13 6 10 1
14 6 14 1
15 6 26 1
16 7 11 1
17 7 15 1
18 7 27 1
19 8 16 2
20 8 18 1
21 9 17 2
22 9 19 1
23 10 28 1
24 10 29 1
25 11 30 1
26 11 31 1
27 12 32 1
28 12 33 1
29 12 34 1
30 13 35 1
31 13 36 1
32 13 37 1
33 14 38 1
34 14 39 1
35 15 40 1
36 15 41 1
37 16 22 1
38 16 42 1
39 17 23 1
40 17 43 1
41 18 24 2
42 18 44 1
43 19 25 2
44 19 45 1
45 20 22 2
46 20 24 1
47 21 23 2
48 21 25 1
49 22 46 1
50 23 47 1
51 24 48 1
52 25 49 1
@<TRIPOS>SUBSTRUCTURE
1	UNK0	1	GROUP	1 ****	UNK
