MODEL 1
REMARK VINA RESULT:    -7.713      0.000      0.000
REMARK INTER + INTRA:         -12.332
REMARK INTER:                 -11.320
REMARK INTRA:                  -1.012
REMARK UNBOUND:                -1.012
REMARK SMILES CC(C)(c1ccc(OC[C@H]2CO2)cc1)c1ccc(OC[C@H]2CO2)cc1
REMARK SMILES IDX 2 1 1 2 3 3 4 4 7 5 6 6 13 7 5 8 14 9 8 10 9 11 10 12 12 13
REMARK SMILES IDX 11 14 15 15 16 16 25 17 17 18 24 19 18 20 19 21 20 22 21 23
REMARK SMILES IDX 23 24 22 25
REMARK H PARENT
ROOT
ATOM      1  C   UNL     1      25.764   2.445   8.628  1.00  0.00     0.015 C 
ATOM      2  C   UNL     1      27.174   2.595   9.300  1.00  0.00     0.021 C 
ATOM      3  C   UNL     1      24.981   1.504   9.620  1.00  0.00     0.021 C 
ENDROOT
BRANCH   1   4
ATOM      4  C   UNL     1      25.183   3.804   8.434  1.00  0.00    -0.038 A 
ATOM      5  C   UNL     1      24.092   6.345   8.069  1.00  0.00     0.119 A 
ATOM      6  C   UNL     1      24.441   5.913   9.348  1.00  0.00     0.047 A 
ATOM      7  C   UNL     1      24.288   5.506   6.972  1.00  0.00     0.047 A 
ATOM      8  C   UNL     1      24.987   4.642   9.531  1.00  0.00     0.008 A 
ATOM      9  C   UNL     1      24.833   4.236   7.154  1.00  0.00     0.008 A 
BRANCH   5  10
ATOM     10  O   UNL     1      23.560   7.586   7.891  1.00  0.00    -0.491 OA
BRANCH  10  11
ATOM     11  C   UNL     1      24.412   8.583   7.328  1.00  0.00     0.264 C 
BRANCH  11  12
ATOM     12  C   UNL     1      24.334   9.825   8.148  1.00  0.00     0.181 C 
ATOM     13  O   UNL     1      24.261  11.030   7.382  1.00  0.00    -0.369 OA
ATOM     14  C   UNL     1      25.454  10.816   8.149  1.00  0.00     0.196 C 
ENDBRANCH  11  12
ENDBRANCH  10  11
ENDBRANCH   5  10
ENDBRANCH   1   4
BRANCH   1  15
ATOM     15  C   UNL     1      25.840   1.632   7.292  1.00  0.00    -0.038 A 
ATOM     16  C   UNL     1      24.722   0.963   6.904  1.00  0.00     0.008 A 
ATOM     17  C   UNL     1      27.020   1.652   6.618  1.00  0.00     0.008 A 
ATOM     18  C   UNL     1      24.791   0.239   5.714  1.00  0.00     0.047 A 
ATOM     19  C   UNL     1      27.089   0.927   5.427  1.00  0.00     0.047 A 
ATOM     20  C   UNL     1      25.974   0.221   4.976  1.00  0.00     0.119 A 
BRANCH  20  21
ATOM     21  O   UNL     1      26.040  -0.486   3.815  1.00  0.00    -0.491 OA
BRANCH  21  22
ATOM     22  C   UNL     1      26.800   0.083   2.750  1.00  0.00     0.264 C 
BRANCH  22  23
ATOM     23  C   UNL     1      27.760  -0.929   2.227  1.00  0.00     0.181 C 
ATOM     24  O   UNL     1      28.285  -1.811   3.223  1.00  0.00    -0.369 OA
ATOM     25  C   UNL     1      29.204  -0.892   2.620  1.00  0.00     0.196 C 
ENDBRANCH  22  23
ENDBRANCH  21  22
ENDBRANCH  20  21
ENDBRANCH   1  15
TORSDOF 8
ENDMDL
MODEL 2
REMARK VINA RESULT:    -7.645      0.137      8.499
REMARK INTER + INTRA:         -12.232
REMARK INTER:                 -11.219
REMARK INTRA:                  -1.013
REMARK UNBOUND:                -1.012
REMARK SMILES CC(C)(c1ccc(OC[C@H]2CO2)cc1)c1ccc(OC[C@H]2CO2)cc1
REMARK SMILES IDX 2 1 1 2 3 3 4 4 7 5 6 6 13 7 5 8 14 9 8 10 9 11 10 12 12 13
REMARK SMILES IDX 11 14 15 15 16 16 25 17 17 18 24 19 18 20 19 21 20 22 21 23
REMARK SMILES IDX 23 24 22 25
REMARK H PARENT
ROOT
ATOM      1  C   UNL     1      25.776   2.324   8.532  1.00  0.00     0.015 C 
ATOM      2  C   UNL     1      24.975   1.457   9.565  1.00  0.00     0.021 C 
ATOM      3  C   UNL     1      27.160   2.565   9.245  1.00  0.00     0.021 C 
ENDROOT
BRANCH   1   4
ATOM      4  C   UNL     1      25.837   1.585   7.238  1.00  0.00    -0.038 A 
ATOM      5  C   UNL     1      25.950   0.206   4.815  1.00  0.00     0.119 A 
ATOM      6  C   UNL     1      27.044   0.960   5.241  1.00  0.00     0.047 A 
ATOM      7  C   UNL     1      24.799   0.144   5.601  1.00  0.00     0.047 A 
ATOM      8  C   UNL     1      26.988   1.649   6.452  1.00  0.00     0.008 A 
ATOM      9  C   UNL     1      24.743   0.833   6.812  1.00  0.00     0.008 A 
BRANCH   5  10
ATOM     10  O   UNL     1      26.006  -0.466   3.633  1.00  0.00    -0.491 OA
BRANCH  10  11
ATOM     11  C   UNL     1      26.881   0.053   2.632  1.00  0.00     0.264 C 
BRANCH  11  12
ATOM     12  C   UNL     1      27.794  -1.027   2.162  1.00  0.00     0.181 C 
ATOM     13  O   UNL     1      28.204  -1.935   3.186  1.00  0.00    -0.369 OA
ATOM     14  C   UNL     1      29.215  -1.087   2.626  1.00  0.00     0.196 C 
ENDBRANCH  11  12
ENDBRANCH  10  11
ENDBRANCH   5  10
ENDBRANCH   1   4
BRANCH   1  15
ATOM     15  C   UNL     1      25.161   3.755   8.373  1.00  0.00    -0.038 A 
ATOM     16  C   UNL     1      25.039   4.510   9.496  1.00  0.00     0.008 A 
ATOM     17  C   UNL     1      24.790   4.137   7.122  1.00  0.00     0.008 A 
ATOM     18  C   UNL     1      24.491   5.785   9.353  1.00  0.00     0.047 A 
ATOM     19  C   UNL     1      24.241   5.412   6.979  1.00  0.00     0.047 A 
ATOM     20  C   UNL     1      24.092   6.235   8.095  1.00  0.00     0.119 A 
BRANCH  20  21
ATOM     21  O   UNL     1      23.557   7.479   7.957  1.00  0.00    -0.491 OA
BRANCH  21  22
ATOM     22  C   UNL     1      24.371   8.471   7.335  1.00  0.00     0.264 C 
BRANCH  22  23
ATOM     23  C   UNL     1      24.306   9.735   8.121  1.00  0.00     0.181 C 
ATOM     24  O   UNL     1      24.324  10.924   7.327  1.00  0.00    -0.369 OA
ATOM     25  C   UNL     1      25.467  10.679   8.155  1.00  0.00     0.196 C 
ENDBRANCH  22  23
ENDBRANCH  21  22
ENDBRANCH  20  21
ENDBRANCH   1  15
TORSDOF 8
ENDMDL
MODEL 3
REMARK VINA RESULT:    -7.573      0.547      1.470
REMARK INTER + INTRA:         -12.127
REMARK INTER:                 -11.190
REMARK INTRA:                  -0.937
REMARK UNBOUND:                -1.012
REMARK SMILES CC(C)(c1ccc(OC[C@H]2CO2)cc1)c1ccc(OC[C@H]2CO2)cc1
REMARK SMILES IDX 2 1 1 2 3 3 4 4 7 5 6 6 13 7 5 8 14 9 8 10 9 11 10 12 12 13
REMARK SMILES IDX 11 14 15 15 16 16 25 17 17 18 24 19 18 20 19 21 20 22 21 23
REMARK SMILES IDX 23 24 22 25
REMARK H PARENT
ROOT
ATOM      1  C   UNL     1      25.834   2.365   8.598  1.00  0.00     0.015 C 
ATOM      2  C   UNL     1      27.253   2.594   9.225  1.00  0.00     0.021 C 
ATOM      3  C   UNL     1      25.129   1.398   9.623  1.00  0.00     0.021 C 
ENDROOT
BRANCH   1   4
ATOM      4  C   UNL     1      25.179   3.691   8.406  1.00  0.00    -0.038 A 
ATOM      5  C   UNL     1      23.958   6.173   8.049  1.00  0.00     0.119 A 
ATOM      6  C   UNL     1      24.247   5.372   6.944  1.00  0.00     0.047 A 
ATOM      7  C   UNL     1      24.281   5.733   9.333  1.00  0.00     0.047 A 
ATOM      8  C   UNL     1      24.857   4.131   7.123  1.00  0.00     0.008 A 
ATOM      9  C   UNL     1      24.891   4.492   9.511  1.00  0.00     0.008 A 
BRANCH   5  10
ATOM     10  O   UNL     1      23.361   7.384   7.874  1.00  0.00    -0.491 OA
BRANCH  10  11
ATOM     11  C   UNL     1      23.836   8.464   8.678  1.00  0.00     0.264 C 
BRANCH  11  12
ATOM     12  C   UNL     1      24.070   9.658   7.819  1.00  0.00     0.181 C 
ATOM     13  O   UNL     1      24.723   9.371   6.580  1.00  0.00    -0.369 OA
ATOM     14  C   UNL     1      25.457  10.143   7.539  1.00  0.00     0.196 C 
ENDBRANCH  11  12
ENDBRANCH  10  11
ENDBRANCH   5  10
ENDBRANCH   1   4
BRANCH   1  15
ATOM     15  C   UNL     1      25.911   1.541   7.269  1.00  0.00    -0.038 A 
ATOM     16  C   UNL     1      27.117   1.473   6.645  1.00  0.00     0.008 A 
ATOM     17  C   UNL     1      24.765   0.955   6.833  1.00  0.00     0.008 A 
ATOM     18  C   UNL     1      27.184   0.739   5.461  1.00  0.00     0.047 A 
ATOM     19  C   UNL     1      24.832   0.221   5.648  1.00  0.00     0.047 A 
ATOM     20  C   UNL     1      26.042   0.113   4.963  1.00  0.00     0.119 A 
BRANCH  20  21
ATOM     21  O   UNL     1      26.109  -0.603   3.807  1.00  0.00    -0.491 OA
BRANCH  21  22
ATOM     22  C   UNL     1      26.698   0.039   2.678  1.00  0.00     0.264 C 
BRANCH  22  23
ATOM     23  C   UNL     1      27.742  -0.846   2.089  1.00  0.00     0.181 C 
ATOM     24  O   UNL     1      28.119  -1.946   2.923  1.00  0.00    -0.369 OA
ATOM     25  C   UNL     1      29.107  -0.933   2.697  1.00  0.00     0.196 C 
ENDBRANCH  22  23
ENDBRANCH  21  22
ENDBRANCH  20  21
ENDBRANCH   1  15
TORSDOF 8
ENDMDL
MODEL 4
REMARK VINA RESULT:    -7.425      2.194      2.762
REMARK INTER + INTRA:         -11.909
REMARK INTER:                 -10.695
REMARK INTRA:                  -1.214
REMARK UNBOUND:                -1.012
REMARK SMILES CC(C)(c1ccc(OC[C@H]2CO2)cc1)c1ccc(OC[C@H]2CO2)cc1
REMARK SMILES IDX 2 1 1 2 3 3 4 4 7 5 6 6 13 7 5 8 14 9 8 10 9 11 10 12 12 13
REMARK SMILES IDX 11 14 15 15 16 16 25 17 17 18 24 19 18 20 19 21 20 22 21 23
REMARK SMILES IDX 23 24 22 25
REMARK H PARENT
ROOT
ATOM      1  C   UNL     1      25.616   2.390   8.415  1.00  0.00     0.015 C 
ATOM      2  C   UNL     1      25.649   2.064   9.949  1.00  0.00     0.021 C 
ATOM      3  C   UNL     1      24.720   1.242   7.812  1.00  0.00     0.021 C 
ENDROOT
BRANCH   1   4
ATOM      4  C   UNL     1      25.096   3.776   8.234  1.00  0.00    -0.038 A 
ATOM      5  C   UNL     1      24.120   6.367   7.896  1.00  0.00     0.119 A 
ATOM      6  C   UNL     1      24.495   5.923   9.164  1.00  0.00     0.047 A 
ATOM      7  C   UNL     1      24.232   5.515   6.798  1.00  0.00     0.047 A 
ATOM      8  C   UNL     1      24.983   4.627   9.333  1.00  0.00     0.008 A 
ATOM      9  C   UNL     1      24.720   4.219   6.967  1.00  0.00     0.008 A 
BRANCH   5  10
ATOM     10  O   UNL     1      23.644   7.632   7.732  1.00  0.00    -0.491 OA
BRANCH  10  11
ATOM     11  C   UNL     1      24.573   8.622   7.291  1.00  0.00     0.264 C 
BRANCH  11  12
ATOM     12  C   UNL     1      24.365   9.878   8.065  1.00  0.00     0.181 C 
ATOM     13  O   UNL     1      24.323  11.061   7.263  1.00  0.00    -0.369 OA
ATOM     14  C   UNL     1      25.440  10.915   8.149  1.00  0.00     0.196 C 
ENDBRANCH  11  12
ENDBRANCH  10  11
ENDBRANCH   5  10
ENDBRANCH   1   4
BRANCH   1  15
ATOM     15  C   UNL     1      27.017   2.187   7.747  1.00  0.00    -0.038 A 
ATOM     16  C   UNL     1      27.090   1.328   6.696  1.00  0.00     0.008 A 
ATOM     17  C   UNL     1      28.062   2.884   8.268  1.00  0.00     0.008 A 
ATOM     18  C   UNL     1      28.338   1.148   6.102  1.00  0.00     0.047 A 
ATOM     19  C   UNL     1      29.311   2.703   7.674  1.00  0.00     0.047 A 
ATOM     20  C   UNL     1      29.449   1.835   6.591  1.00  0.00     0.119 A 
BRANCH  20  21
ATOM     21  O   UNL     1      30.667   1.659   6.010  1.00  0.00    -0.491 OA
BRANCH  21  22
ATOM     22  C   UNL     1      30.809   0.554   5.120  1.00  0.00     0.264 C 
BRANCH  22  23
ATOM     23  C   UNL     1      31.418  -0.596   5.845  1.00  0.00     0.181 C 
ATOM     24  O   UNL     1      32.825  -0.472   6.068  1.00  0.00    -0.369 OA
ATOM     25  C   UNL     1      32.398  -1.500   5.165  1.00  0.00     0.196 C 
ENDBRANCH  22  23
ENDBRANCH  21  22
ENDBRANCH  20  21
ENDBRANCH   1  15
TORSDOF 8
ENDMDL
MODEL 5
REMARK VINA RESULT:    -7.394      3.193      4.029
REMARK INTER + INTRA:         -11.864
REMARK INTER:                 -10.638
REMARK INTRA:                  -1.226
REMARK UNBOUND:                -1.012
REMARK SMILES CC(C)(c1ccc(OC[C@H]2CO2)cc1)c1ccc(OC[C@H]2CO2)cc1
REMARK SMILES IDX 2 1 1 2 3 3 4 4 7 5 6 6 13 7 5 8 14 9 8 10 9 11 10 12 12 13
REMARK SMILES IDX 11 14 15 15 16 16 25 17 17 18 24 19 18 20 19 21 20 22 21 23
REMARK SMILES IDX 23 24 22 25
REMARK H PARENT
ROOT
ATOM      1  C   UNL     1      25.765   2.475   8.456  1.00  0.00     0.015 C 
ATOM      2  C   UNL     1      25.721   1.953   9.934  1.00  0.00     0.021 C 
ATOM      3  C   UNL     1      25.032   1.342   7.642  1.00  0.00     0.021 C 
ENDROOT
BRANCH   1   4
ATOM      4  C   UNL     1      25.125   3.820   8.408  1.00  0.00    -0.038 A 
ATOM      5  C   UNL     1      23.930   6.340   8.318  1.00  0.00     0.119 A 
ATOM      6  C   UNL     1      24.128   5.619   7.140  1.00  0.00     0.047 A 
ATOM      7  C   UNL     1      24.331   5.801   9.541  1.00  0.00     0.047 A 
ATOM      8  C   UNL     1      24.725   4.359   7.185  1.00  0.00     0.008 A 
ATOM      9  C   UNL     1      24.929   4.541   9.585  1.00  0.00     0.008 A 
BRANCH   5  10
ATOM     10  O   UNL     1      23.347   7.569   8.274  1.00  0.00    -0.491 OA
BRANCH  10  11
ATOM     11  C   UNL     1      23.932   8.533   7.399  1.00  0.00     0.264 C 
BRANCH  11  12
ATOM     12  C   UNL     1      24.172   9.800   8.144  1.00  0.00     0.181 C 
ATOM     13  O   UNL     1      24.345  10.948   7.310  1.00  0.00    -0.369 OA
ATOM     14  C   UNL     1      25.488  10.507   8.054  1.00  0.00     0.196 C 
ENDBRANCH  11  12
ENDBRANCH  10  11
ENDBRANCH   5  10
ENDBRANCH   1   4
BRANCH   1  15
ATOM     15  C   UNL     1      27.223   2.488   7.887  1.00  0.00    -0.038 A 
ATOM     16  C   UNL     1      27.530   1.568   6.934  1.00  0.00     0.008 A 
ATOM     17  C   UNL     1      28.079   3.417   8.388  1.00  0.00     0.008 A 
ATOM     18  C   UNL     1      28.829   1.580   6.428  1.00  0.00     0.047 A 
ATOM     19  C   UNL     1      29.380   3.429   7.882  1.00  0.00     0.047 A 
ATOM     20  C   UNL     1      29.754   2.511   6.902  1.00  0.00     0.119 A 
BRANCH  20  21
ATOM     21  O   UNL     1      31.022   2.522   6.407  1.00  0.00    -0.491 OA
BRANCH  21  22
ATOM     22  C   UNL     1      31.865   3.602   6.804  1.00  0.00     0.264 C 
BRANCH  22  23
ATOM     23  C   UNL     1      32.383   4.300   5.594  1.00  0.00     0.181 C 
ATOM     24  O   UNL     1      33.807   4.432   5.556  1.00  0.00    -0.369 OA
ATOM     25  C   UNL     1      33.046   5.637   5.705  1.00  0.00     0.196 C 
ENDBRANCH  22  23
ENDBRANCH  21  22
ENDBRANCH  20  21
ENDBRANCH   1  15
TORSDOF 8
ENDMDL
MODEL 6
REMARK VINA RESULT:    -7.332      2.734      8.373
REMARK INTER + INTRA:         -11.773
REMARK INTER:                 -10.478
REMARK INTRA:                  -1.295
REMARK UNBOUND:                -1.012
REMARK SMILES CC(C)(c1ccc(OC[C@H]2CO2)cc1)c1ccc(OC[C@H]2CO2)cc1
REMARK SMILES IDX 2 1 1 2 3 3 4 4 7 5 6 6 13 7 5 8 14 9 8 10 9 11 10 12 12 13
REMARK SMILES IDX 11 14 15 15 16 16 25 17 17 18 24 19 18 20 19 21 20 22 21 23
REMARK SMILES IDX 23 24 22 25
REMARK H PARENT
ROOT
ATOM      1  C   UNL     1      25.745   2.565   8.405  1.00  0.00     0.015 C 
ATOM      2  C   UNL     1      24.935   1.424   7.696  1.00  0.00     0.021 C 
ATOM      3  C   UNL     1      25.568   2.247   9.938  1.00  0.00     0.021 C 
ENDROOT
BRANCH   1   4
ATOM      4  C   UNL     1      27.147   2.538   7.898  1.00  0.00    -0.038 A 
ATOM      5  C   UNL     1      29.771   2.486   6.953  1.00  0.00     0.119 A 
ATOM      6  C   UNL     1      28.810   1.646   6.390  1.00  0.00     0.047 A 
ATOM      7  C   UNL     1      29.420   3.351   7.988  1.00  0.00     0.047 A 
ATOM      8  C   UNL     1      27.498   1.672   6.863  1.00  0.00     0.008 A 
ATOM      9  C   UNL     1      28.108   3.377   8.461  1.00  0.00     0.008 A 
BRANCH   5  10
ATOM     10  O   UNL     1      31.051   2.460   6.490  1.00  0.00    -0.491 OA
BRANCH  10  11
ATOM     11  C   UNL     1      31.255   1.947   5.174  1.00  0.00     0.264 C 
BRANCH  11  12
ATOM     12  C   UNL     1      32.484   1.104   5.154  1.00  0.00     0.181 C 
ATOM     13  O   UNL     1      33.533   1.576   6.003  1.00  0.00    -0.369 OA
ATOM     14  C   UNL     1      33.766   1.630   4.590  1.00  0.00     0.196 C 
ENDBRANCH  11  12
ENDBRANCH  10  11
ENDBRANCH   5  10
ENDBRANCH   1   4
BRANCH   1  15
ATOM     15  C   UNL     1      25.068   3.964   8.213  1.00  0.00    -0.038 A 
ATOM     16  C   UNL     1      24.778   4.676   9.334  1.00  0.00     0.008 A 
ATOM     17  C   UNL     1      24.818   4.364   6.939  1.00  0.00     0.008 A 
ATOM     18  C   UNL     1      24.175   5.921   9.162  1.00  0.00     0.047 A 
ATOM     19  C   UNL     1      24.214   5.611   6.766  1.00  0.00     0.047 A 
ATOM     20  C   UNL     1      23.893   6.389   7.878  1.00  0.00     0.119 A 
BRANCH  20  21
ATOM     21  O   UNL     1      23.305   7.605   7.711  1.00  0.00    -0.491 OA
BRANCH  21  22
ATOM     22  C   UNL     1      23.705   8.647   8.599  1.00  0.00     0.264 C 
BRANCH  22  23
ATOM     23  C   UNL     1      24.739   9.493   7.940  1.00  0.00     0.181 C 
ATOM     24  O   UNL     1      25.368  10.439   8.810  1.00  0.00    -0.369 OA
ATOM     25  C   UNL     1      24.533  10.966   7.771  1.00  0.00     0.196 C 
ENDBRANCH  22  23
ENDBRANCH  21  22
ENDBRANCH  20  21
ENDBRANCH   1  15
TORSDOF 8
ENDMDL
MODEL 7
REMARK VINA RESULT:    -7.292      1.108      1.941
REMARK INTER + INTRA:         -11.714
REMARK INTER:                 -10.637
REMARK INTRA:                  -1.077
REMARK UNBOUND:                -1.012
REMARK SMILES CC(C)(c1ccc(OC[C@H]2CO2)cc1)c1ccc(OC[C@H]2CO2)cc1
REMARK SMILES IDX 2 1 1 2 3 3 4 4 7 5 6 6 13 7 5 8 14 9 8 10 9 11 10 12 12 13
REMARK SMILES IDX 11 14 15 15 16 16 25 17 17 18 24 19 18 20 19 21 20 22 21 23
REMARK SMILES IDX 23 24 22 25
REMARK H PARENT
ROOT
ATOM      1  C   UNL     1      26.023   2.349   8.261  1.00  0.00     0.015 C 
ATOM      2  C   UNL     1      27.387   2.474   9.026  1.00  0.00     0.021 C 
ATOM      3  C   UNL     1      25.143   1.458   9.217  1.00  0.00     0.021 C 
ENDROOT
BRANCH   1   4
ATOM      4  C   UNL     1      25.500   3.719   7.994  1.00  0.00    -0.038 A 
ATOM      5  C   UNL     1      24.525   6.285   7.498  1.00  0.00     0.119 A 
ATOM      6  C   UNL     1      25.288   5.630   6.531  1.00  0.00     0.047 A 
ATOM      7  C   UNL     1      24.251   5.658   8.712  1.00  0.00     0.047 A 
ATOM      8  C   UNL     1      25.776   4.347   6.779  1.00  0.00     0.008 A 
ATOM      9  C   UNL     1      24.738   4.375   8.961  1.00  0.00     0.008 A 
BRANCH   5  10
ATOM     10  O   UNL     1      24.049   7.537   7.254  1.00  0.00    -0.491 OA
BRANCH  10  11
ATOM     11  C   UNL     1      25.014   8.570   7.053  1.00  0.00     0.264 C 
BRANCH  11  12
ATOM     12  C   UNL     1      24.635   9.767   7.856  1.00  0.00     0.181 C 
ATOM     13  O   UNL     1      24.570  10.981   7.103  1.00  0.00    -0.369 OA
ATOM     14  C   UNL     1      25.610  10.878   8.084  1.00  0.00     0.196 C 
ENDBRANCH  11  12
ENDBRANCH  10  11
ENDBRANCH   5  10
ENDBRANCH   1   4
BRANCH   1  15
ATOM     15  C   UNL     1      26.166   1.500   6.953  1.00  0.00    -0.038 A 
ATOM     16  C   UNL     1      27.418   1.326   6.455  1.00  0.00     0.008 A 
ATOM     17  C   UNL     1      25.025   1.001   6.407  1.00  0.00     0.008 A 
ATOM     18  C   UNL     1      27.544   0.570   5.289  1.00  0.00     0.047 A 
ATOM     19  C   UNL     1      25.150   0.245   5.241  1.00  0.00     0.047 A 
ATOM     20  C   UNL     1      26.410   0.030   4.683  1.00  0.00     0.119 A 
BRANCH  20  21
ATOM     21  O   UNL     1      26.534  -0.707   3.545  1.00  0.00    -0.491 OA
BRANCH  21  22
ATOM     22  C   UNL     1      26.937  -0.016   2.363  1.00  0.00     0.264 C 
BRANCH  22  23
ATOM     23  C   UNL     1      25.737   0.305   1.541  1.00  0.00     0.181 C 
ATOM     24  O   UNL     1      25.458  -0.646   0.510  1.00  0.00    -0.369 OA
ATOM     25  C   UNL     1      25.871   0.661   0.094  1.00  0.00     0.196 C 
ENDBRANCH  22  23
ENDBRANCH  21  22
ENDBRANCH  20  21
ENDBRANCH   1  15
TORSDOF 8
ENDMDL
MODEL 8
REMARK VINA RESULT:    -7.202      3.237      7.870
REMARK INTER + INTRA:         -11.582
REMARK INTER:                 -10.300
REMARK INTRA:                  -1.282
REMARK UNBOUND:                -1.012
REMARK SMILES CC(C)(c1ccc(OC[C@H]2CO2)cc1)c1ccc(OC[C@H]2CO2)cc1
REMARK SMILES IDX 2 1 1 2 3 3 4 4 7 5 6 6 13 7 5 8 14 9 8 10 9 11 10 12 12 13
REMARK SMILES IDX 11 14 15 15 16 16 25 17 17 18 24 19 18 20 19 21 20 22 21 23
REMARK SMILES IDX 23 24 22 25
REMARK H PARENT
ROOT
ATOM      1  C   UNL     1      25.709   2.744   8.435  1.00  0.00     0.015 C 
ATOM      2  C   UNL     1      24.886   1.582   7.776  1.00  0.00     0.021 C 
ATOM      3  C   UNL     1      25.542   2.484   9.980  1.00  0.00     0.021 C 
ENDROOT
BRANCH   1   4
ATOM      4  C   UNL     1      27.106   2.688   7.919  1.00  0.00    -0.038 A 
ATOM      5  C   UNL     1      29.720   2.586   6.950  1.00  0.00     0.119 A 
ATOM      6  C   UNL     1      29.377   3.513   7.934  1.00  0.00     0.047 A 
ATOM      7  C   UNL     1      28.756   1.711   6.450  1.00  0.00     0.047 A 
ATOM      8  C   UNL     1      28.070   3.564   8.418  1.00  0.00     0.008 A 
ATOM      9  C   UNL     1      27.449   1.762   6.934  1.00  0.00     0.008 A 
BRANCH   5  10
ATOM     10  O   UNL     1      30.996   2.536   6.478  1.00  0.00    -0.491 OA
BRANCH  10  11
ATOM     11  C   UNL     1      31.858   3.620   6.824  1.00  0.00     0.264 C 
BRANCH  11  12
ATOM     12  C   UNL     1      32.393   4.246   5.582  1.00  0.00     0.181 C 
ATOM     13  O   UNL     1      33.815   4.385   5.561  1.00  0.00    -0.369 OA
ATOM     14  C   UNL     1      33.045   5.592   5.621  1.00  0.00     0.196 C 
ENDBRANCH  11  12
ENDBRANCH  10  11
ENDBRANCH   5  10
ENDBRANCH   1   4
BRANCH   1  15
ATOM     15  C   UNL     1      25.040   4.139   8.196  1.00  0.00    -0.038 A 
ATOM     16  C   UNL     1      24.823   4.515   6.908  1.00  0.00     0.008 A 
ATOM     17  C   UNL     1      24.727   4.876   9.294  1.00  0.00     0.008 A 
ATOM     18  C   UNL     1      24.228   5.758   6.696  1.00  0.00     0.047 A 
ATOM     19  C   UNL     1      24.132   6.120   9.083  1.00  0.00     0.047 A 
ATOM     20  C   UNL     1      23.882   6.560   7.783  1.00  0.00     0.119 A 
BRANCH  20  21
ATOM     21  O   UNL     1      23.301   7.773   7.575  1.00  0.00    -0.491 OA
BRANCH  21  22
ATOM     22  C   UNL     1      23.697   8.840   8.436  1.00  0.00     0.264 C 
BRANCH  22  23
ATOM     23  C   UNL     1      24.993   9.405   7.966  1.00  0.00     0.181 C 
ATOM     24  O   UNL     1      25.452  10.530   8.721  1.00  0.00    -0.369 OA
ATOM     25  C   UNL     1      25.060  10.774   7.364  1.00  0.00     0.196 C 
ENDBRANCH  22  23
ENDBRANCH  21  22
ENDBRANCH  20  21
ENDBRANCH   1  15
TORSDOF 8
ENDMDL
MODEL 9
REMARK VINA RESULT:    -7.111      2.213      8.788
REMARK INTER + INTRA:         -11.449
REMARK INTER:                 -10.325
REMARK INTRA:                  -1.124
REMARK UNBOUND:                -1.012
REMARK SMILES CC(C)(c1ccc(OC[C@H]2CO2)cc1)c1ccc(OC[C@H]2CO2)cc1
REMARK SMILES IDX 2 1 1 2 3 3 4 4 7 5 6 6 13 7 5 8 14 9 8 10 9 11 10 12 12 13
REMARK SMILES IDX 11 14 15 15 16 16 25 17 17 18 24 19 18 20 19 21 20 22 21 23
REMARK SMILES IDX 23 24 22 25
REMARK H PARENT
ROOT
ATOM      1  C   UNL     1      25.697   2.072   7.606  1.00  0.00     0.015 C 
ATOM      2  C   UNL     1      24.535   1.538   6.699  1.00  0.00     0.021 C 
ATOM      3  C   UNL     1      25.423   1.390   8.999  1.00  0.00     0.021 C 
ENDROOT
BRANCH   1   4
ATOM      4  C   UNL     1      26.998   1.727   6.964  1.00  0.00    -0.038 A 
ATOM      5  C   UNL     1      29.431   1.083   5.760  1.00  0.00     0.119 A 
ATOM      6  C   UNL     1      29.405   1.911   6.883  1.00  0.00     0.047 A 
ATOM      7  C   UNL     1      28.240   0.579   5.239  1.00  0.00     0.047 A 
ATOM      8  C   UNL     1      28.189   2.233   7.485  1.00  0.00     0.008 A 
ATOM      9  C   UNL     1      27.023   0.900   5.841  1.00  0.00     0.008 A 
BRANCH   5  10
ATOM     10  O   UNL     1      30.619   0.770   5.174  1.00  0.00    -0.491 OA
BRANCH  10  11
ATOM     11  C   UNL     1      30.856  -0.608   4.885  1.00  0.00     0.264 C 
BRANCH  11  12
ATOM     12  C   UNL     1      31.505  -1.257   6.059  1.00  0.00     0.181 C 
ATOM     13  O   UNL     1      32.871  -0.883   6.255  1.00  0.00    -0.369 OA
ATOM     14  C   UNL     1      32.616  -2.242   5.875  1.00  0.00     0.196 C 
ENDBRANCH  11  12
ENDBRANCH  10  11
ENDBRANCH   5  10
ENDBRANCH   1   4
BRANCH   1  15
ATOM     15  C   UNL     1      25.559   3.607   7.885  1.00  0.00    -0.038 A 
ATOM     16  C   UNL     1      25.505   4.003   9.184  1.00  0.00     0.008 A 
ATOM     17  C   UNL     1      25.500   4.432   6.806  1.00  0.00     0.008 A 
ATOM     18  C   UNL     1      25.382   5.370   9.431  1.00  0.00     0.047 A 
ATOM     19  C   UNL     1      25.376   5.800   7.053  1.00  0.00     0.047 A 
ATOM     20  C   UNL     1      25.317   6.268   8.366  1.00  0.00     0.119 A 
BRANCH  20  21
ATOM     21  O   UNL     1      25.197   7.602   8.609  1.00  0.00    -0.491 OA
BRANCH  21  22
ATOM     22  C   UNL     1      24.667   8.408   7.558  1.00  0.00     0.264 C 
BRANCH  22  23
ATOM     23  C   UNL     1      24.524   9.814   8.031  1.00  0.00     0.181 C 
ATOM     24  O   UNL     1      24.626  10.796   6.997  1.00  0.00    -0.369 OA
ATOM     25  C   UNL     1      25.677  10.766   7.969  1.00  0.00     0.196 C 
ENDBRANCH  22  23
ENDBRANCH  21  22
ENDBRANCH  20  21
ENDBRANCH   1  15
TORSDOF 8
ENDMDL
MODEL 10
REMARK VINA RESULT:    -6.836      1.445      8.747
REMARK INTER + INTRA:         -11.045
REMARK INTER:                  -9.711
REMARK INTRA:                  -1.334
REMARK UNBOUND:                -1.012
REMARK SMILES CC(C)(c1ccc(OC[C@H]2CO2)cc1)c1ccc(OC[C@H]2CO2)cc1
REMARK SMILES IDX 2 1 1 2 3 3 4 4 7 5 6 6 13 7 5 8 14 9 8 10 9 11 10 12 12 13
REMARK SMILES IDX 11 14 15 15 16 16 25 17 17 18 24 19 18 20 19 21 20 22 21 23
REMARK SMILES IDX 23 24 22 25
REMARK H PARENT
ROOT
ATOM      1  C   UNL     1      26.335   2.375   7.819  1.00  0.00     0.015 C 
ATOM      2  C   UNL     1      25.237   1.699   8.713  1.00  0.00     0.021 C 
ATOM      3  C   UNL     1      27.498   2.687   8.835  1.00  0.00     0.021 C 
ENDROOT
BRANCH   1   4
ATOM      4  C   UNL     1      26.682   1.445   6.707  1.00  0.00    -0.038 A 
ATOM      5  C   UNL     1      27.331  -0.294   4.624  1.00  0.00     0.119 A 
ATOM      6  C   UNL     1      28.337   0.227   5.437  1.00  0.00     0.047 A 
ATOM      7  C   UNL     1      26.000   0.056   4.852  1.00  0.00     0.047 A 
ATOM      8  C   UNL     1      28.013   1.096   6.479  1.00  0.00     0.008 A 
ATOM      9  C   UNL     1      25.676   0.925   5.893  1.00  0.00     0.008 A 
BRANCH   5  10
ATOM     10  O   UNL     1      27.648  -1.142   3.608  1.00  0.00    -0.491 OA
BRANCH  10  11
ATOM     11  C   UNL     1      29.034  -1.298   3.302  1.00  0.00     0.264 C 
BRANCH  11  12
ATOM     12  C   UNL     1      29.417  -2.730   3.452  1.00  0.00     0.181 C 
ATOM     13  O   UNL     1      28.885  -3.361   4.619  1.00  0.00    -0.369 OA
ATOM     14  C   UNL     1      30.305  -3.174   4.571  1.00  0.00     0.196 C 
ENDBRANCH  11  12
ENDBRANCH  10  11
ENDBRANCH   5  10
ENDBRANCH   1   4
BRANCH   1  15
ATOM     15  C   UNL     1      25.879   3.780   7.300  1.00  0.00    -0.038 A 
ATOM     16  C   UNL     1      24.700   4.267   7.771  1.00  0.00     0.008 A 
ATOM     17  C   UNL     1      26.693   4.411   6.414  1.00  0.00     0.008 A 
ATOM     18  C   UNL     1      24.294   5.518   7.308  1.00  0.00     0.047 A 
ATOM     19  C   UNL     1      26.288   5.663   5.950  1.00  0.00     0.047 A 
ATOM     20  C   UNL     1      25.088   6.216   6.397  1.00  0.00     0.119 A 
BRANCH  20  21
ATOM     21  O   UNL     1      24.691   7.437   5.946  1.00  0.00    -0.491 OA
BRANCH  21  22
ATOM     22  C   UNL     1      25.511   8.554   6.287  1.00  0.00     0.264 C 
BRANCH  22  23
ATOM     23  C   UNL     1      25.145   9.045   7.645  1.00  0.00     0.181 C 
ATOM     24  O   UNL     1      23.983   9.879   7.675  1.00  0.00    -0.369 OA
ATOM     25  C   UNL     1      25.236  10.500   7.985  1.00  0.00     0.196 C 
ENDBRANCH  22  23
ENDBRANCH  21  22
ENDBRANCH  20  21
ENDBRANCH   1  15
TORSDOF 8
ENDMDL
