REMARK SMILES CC(C)(c1ccc(OC[C@H]2CO2)cc1)c1ccc(OC[C@H]2CO2)cc1
REMARK SMILES IDX 2 1 1 2 3 3 4 4 7 5 6 6 13 7 5 8 14 9 8 10 9 11 10 12 12 13
REMARK SMILES IDX 11 14 15 15 16 16 25 17 17 18 24 19 18 20 19 21 20 22 21 23
REMARK SMILES IDX 23 24 22 25
REMARK H PARENT
REMARK Flexibility Score: inf
ROOT
ATOM      1  C   UNL     1      -0.003   2.555  -0.004  1.00  0.00     0.015 C 
ATOM      2  C   UNL     1       0.160   3.526  -1.225  1.00  0.00     0.021 C 
ATOM      3  C   UNL     1      -0.043   3.525   1.237  1.00  0.00     0.021 C 
ENDROOT
BRANCH   1   4
ATOM      4  C   UNL     1      -1.225   1.727  -0.215  1.00  0.00    -0.038 A 
ATOM      5  C   UNL     1      -3.513   0.181  -0.611  1.00  0.00     0.119 A 
ATOM      6  C   UNL     1      -2.432   0.064  -1.485  1.00  0.00     0.047 A 
ATOM      7  C   UNL     1      -3.450   1.072   0.460  1.00  0.00     0.047 A 
ATOM      8  C   UNL     1      -1.288   0.837  -1.287  1.00  0.00     0.008 A 
ATOM      9  C   UNL     1      -2.306   1.845   0.659  1.00  0.00     0.008 A 
BRANCH   5  10
ATOM     10  O   UNL     1      -4.629  -0.574  -0.805  1.00  0.00    -0.491 OA
BRANCH  10  11
ATOM     11  C   UNL     1      -5.379  -0.933   0.355  1.00  0.00     0.264 C 
BRANCH  11  12
ATOM     12  C   UNL     1      -6.063  -2.236   0.122  1.00  0.00     0.181 C 
ATOM     13  O   UNL     1      -5.803  -3.223   1.122  1.00  0.00    -0.369 OA
ATOM     14  C   UNL     1      -5.277  -3.471  -0.188  1.00  0.00     0.196 C 
ENDBRANCH  11  12
ENDBRANCH  10  11
ENDBRANCH   5  10
ENDBRANCH   1   4
BRANCH   1  15
ATOM     15  C   UNL     1       1.277   1.682   0.220  1.00  0.00    -0.038 A 
ATOM     16  C   UNL     1       1.277   0.835   1.283  1.00  0.00     0.008 A 
ATOM     17  C   UNL     1       2.298   1.836  -0.664  1.00  0.00     0.008 A 
ATOM     18  C   UNL     1       2.418   0.058   1.482  1.00  0.00     0.047 A 
ATOM     19  C   UNL     1       3.440   1.059  -0.465  1.00  0.00     0.047 A 
ATOM     20  C   UNL     1       3.500   0.170   0.608  1.00  0.00     0.119 A 
BRANCH  20  21
ATOM     21  O   UNL     1       4.612  -0.589   0.803  1.00  0.00    -0.491 OA
BRANCH  21  22
ATOM     22  C   UNL     1       5.362  -0.952  -0.355  1.00  0.00     0.264 C 
BRANCH  22  23
ATOM     23  C   UNL     1       6.041  -2.257  -0.120  1.00  0.00     0.181 C 
ATOM     24  O   UNL     1       5.777  -3.246  -1.119  1.00  0.00    -0.369 OA
ATOM     25  C   UNL     1       5.250  -3.489   0.191  1.00  0.00     0.196 C 
ENDBRANCH  22  23
ENDBRANCH  21  22
ENDBRANCH  20  21
ENDBRANCH   1  15
TORSDOF 8
